TIPO DE ANALISIS

.STEP V_VIN LIST 0.5 0.99 1 1.01 1.5
.TRAN  0 150n 0 10p 
.PROBE V(*) I(*) 


---------------------------------------------------------

FALLA EXPONENCIAL

+EXP 0 4m 2n 30p 2.2n 500p

---------------------------------------------------------

FALLA RAMPA

+PULSE 0 4m 2n 50p 1.55n 100p 0

---------------------------------------------------------

FALLA DOBLE RAMPA


+PULSE 0 4m 2n 30p 150p 0p 400n

+PULSE 0 2m 2n 60p 2n 50p 400n