TIPO DE ANALISIS

.STEP V_VIN LIST 0.5 0.99 1 1.01 1.5
.TRAN  0 150n 0 0 
.PROBE V(*) I(*) 


---------------------------------------------------------

FALLA EXPONENCIAL

+EXP 0 4m 2n 30p 2.2n 500p

---------------------------------------------------------

FALLA RAMPA

+PULSE 0 4m 2n 250p 250p 5n 0

---------------------------------------------------------

