* PSpice Model Editor - Version 16.2.0
*$
.MODEL CMOSP PMOS (                                LEVEL   = 49
+VERSION = 3.1            TNOM    = 27             TOX     = 3.16E-8
+XJ      = 3E-7           NCH     = 2.4E16         VTH0    = -0.8476404
+K1      = 0.4513608      K2      = 2.379699E-5    K3      = 13.3278347
+K3B     = -2.2238332     W0      = 9.577236E-7    NLX     = 1E-6
+DVT0W   = 0              DVT1W   = 0              DVT2W   = 0
+DVT0    = 2.8137786      DVT1    = 0.7604621      DVT2    = -0.052421
+U0      = 236.8923827    UA      = 3.833306E-9    UB      = 1.487688E-21
+UC      = -1.08562E-10   VSAT    = 1.159861E5     A0      = 0.9443065
+AGS     = 0.259481       B0      = 3.299132E-6    B1      = 5E-6
+KETA    = 9.832612E-4    A1      = 0              A2      = 0.364
+RDSW    = 3E3            PRWG    = 0.0729646      PRWB    = -0.1851255
+WR      = 1              WINT    = 7.565065E-7    LINT    = 1.415433E-7
+XL      = 0              XW      = 0              DWG     = -2.13917E-8
+DWB     = 3.857544E-8    VOFF    = -0.0877184     NFACTOR = 0.2508342
+CIT     = 0              CDSC    = 2.924806E-5    CDSCD   = 1.497572E-4
+CDSCB   = 1.091488E-4    ETA0    = 0.25103        ETAB    = 4.268713E-3
+DSUB    = 0.2873         PCLM    = 6.403032E-10   PDIBLC1 = 7.477411E-4
+PDIBLC2 = 3.271335E-3    PDIBLCB = -1E-3          DROUT   = 1E-3
+PSCBE1  = 3.515038E9     PSCBE2  = 5.273648E-10   PVAG    = 14.985
+DELTA   = 0.01           RSH     = 77.3           MOBMOD  = 1
+PRT     = 0              UTE     = -1.5           KT1     = -0.11
+KT1L    = 0              KT2     = 0.022          UA1     = 4.31E-9
+UB1     = -7.61E-18      UC1     = -5.6E-11       AT      = 3.3E4
+WL      = 0              WLN     = 1              WW      = 0
+WWN     = 1              WWL     = 0              LL      = 0
+LLN     = 1              LW      = 0              LWN     = 1
+LWL     = 0              CAPMOD  = 2              XPART   = 0.5
+CGDO    = 2.65E-10       CGSO    = 2.65E-10       CGBO    = 1E-9
+CJ      = 3.017493E-4    PB      = 0.8            MJ      = 0.4487672
+CJSW    = 1.634365E-10   PBSW    = 0.99           MJSW    = 0.1219817
+CJSWG   = 3.9E-11        PBSWG   = 0.99           MJSWG   = 0.1219817
+CF      = 0               )
*$
.MODEL CMOSN NMOS (                                LEVEL   = 49
+VERSION = 3.1            TNOM    = 27             TOX     = 3.16E-8
+XJ      = 3E-7           NCH     = 7.5E16         VTH0    = 0.5532293
+K1      = 0.9035181      K2      = -0.0643307     K3      = 2.5479002
+K3B     = -2.8027479     W0      = 3.208573E-6    NLX     = 2.437748E-8
+DVT0W   = 0              DVT1W   = 0              DVT2W   = 0
+DVT0    = 0.7417824      DVT1    = 0.4992713      DVT2    = -0.4963435
+U0      = 668.7098806    UA      = 1.606939E-9    UB      = 1.161183E-18
+UC      = 2.084488E-11   VSAT    = 1.15642E5      A0      = 0.5520578
+AGS     = 0.0735062      B0      = 2.123316E-6    B1      = 5E-6
+KETA    = -3.240368E-3   A1      = 0              A2      = 1
+RDSW    = 3E3            PRWG    = -0.0295407     PRWB    = -0.0293523
+WR      = 1              WINT    = 6.860525E-7    LINT    = 2.905606E-7
+XL      = 0              XW      = 0              DWG     = -2.112208E-8
+DWB     = 2.909887E-8    VOFF    = -0.0475545     NFACTOR = 0.7389868
+CIT     = 0              CDSC    = 2.230152E-6    CDSCD   = 2.587466E-6
+CDSCB   = 1.055349E-4    ETA0    = -0.0329209     ETAB    = -6.587451E-3
+DSUB    = 5.634216E-3    PCLM    = 0.1186109      PDIBLC1 = 0.0110461
+PDIBLC2 = 3.644817E-3    PDIBLCB = -0.1           DROUT   = 0.0795384
+PSCBE1  = 2.153596E9     PSCBE2  = 5.005E-10      PVAG    = 0.2222499
+DELTA   = 0.01           RSH     = 53.2           MOBMOD  = 1
+PRT     = 0              UTE     = -1.5           KT1     = -0.11
+KT1L    = 0              KT2     = 0.022          UA1     = 4.31E-9
+UB1     = -7.61E-18      UC1     = -5.6E-11       AT      = 3.3E4
+WL      = 0              WLN     = 1              WW      = 0
+WWN     = 1              WWL     = 0              LL      = 0
+LLN     = 1              LW      = 0              LWN     = 1
+LWL     = 0              CAPMOD  = 2              XPART   = 0.5
+CGDO    = 2.56E-10       CGSO    = 2.56E-10       CGBO    = 1E-9
+CJ      = 2.823234E-4    PB      = 0.99           MJ      = 0.547221
+CJSW    = 1.292241E-10   PBSW    = 0.99           MJSW    = 0.1
+CJSWG   = 6.4E-11        PBSWG   = 0.99           MJSWG   = 0.1
+CF      = 0               )
*$
